7
f = -33.26829982997525, |proj g| = 1.228278599061742e-05
Pt        -1.27146       -1.74483       -0.16746
Pt        -0.00162        2.15435        0.21876
Pt         2.05889        0.66885        0.05219
Pt         1.27408       -1.74098       -0.18650
Pt        -2.05989        0.66262        0.08301
Pt         0.01065       -0.14167        1.39530
Pt        -0.01065        0.14167       -1.39530
