7
f = -32.69094352619006, |proj g| = 1.2379361599965336e-05
Pt        -2.07214       -1.20652        0.52129
Pt         0.00773        2.40723        0.47580
Pt         1.28533        0.75663       -0.93413
Pt         2.09657       -1.20129        0.42716
Pt        -1.32808        0.75335       -0.87512
Pt         0.02914       -0.00053        1.29061
Pt        -0.01856       -1.50887       -0.90562
