6
f = -16.445068528101036, |proj g| = 5.62147858727845e-06
Pd         2.25112       -1.58504        0.00209
Pd         0.00065       -0.52508       -0.00899
Pd        -0.00255        2.02650        0.03468
Pd         2.17538        0.83890        0.04263
Pd        -2.24713       -1.58969       -0.05641
Pd        -2.17749        0.83440       -0.01399
